@<TRIPOS>MOLECULE
E000233-binding-residue.pdb
 158 155 0 0 0
SMALL
GASTEIGER

@<TRIPOS>ATOM
      1  N          1.5200    3.5140    1.7290 N.3    22  MET22      -0.1230
      2  CA         0.7370    2.3390    1.9710 C.3    22  MET22       0.1702
      3  CB         1.3960    1.3200    2.9190 C.3    22  MET22       0.0401
      4  CG         0.7000   -0.0430    2.8890 C.3    22  MET22       0.0596
      5  SD         1.6560   -1.4080    3.6160 S.3    22  MET22      -0.1393
      6  CE         1.5240   -0.8150    5.3270 C.3    22  MET22       0.0692
      7  C         -0.5480    2.8230    2.5610 C.2    22  MET22       0.2592
      8  O         -0.5860    3.3310    3.6830 O.2    22  MET22      -0.2718
      9  N         -1.6490    2.6370    1.8030 N.am   23  VAL23      -0.1966
     10  CA        -2.9040    3.2110    2.1740 C.3    23  VAL23       0.1727
     11  CB        -3.2640    4.4050    1.3420 C.3    23  VAL23       0.0290
     12  CG1       -2.2140    5.5010    1.5940 C.3    23  VAL23       0.0023
     13  CG2       -3.3670    3.9660   -0.1290 C.3    23  VAL23       0.0023
     14  C         -4.0020    2.2130    2.0130 C.2    23  VAL23       0.2617
     15  O         -3.8110    1.1170    1.4880 O.2    23  VAL23      -0.2715
     16  N         -5.1890    2.5840    2.5350 N.am   24  GLY24      -0.1940
     17  CA        -6.3600    1.7660    2.4910 C.3    24  GLY24       0.2014
     18  C         -7.2360    2.2100    3.6240 C.2    24  GLY24       0.2639
     19  O         -6.9360    3.1810    4.3150 O.2    24  GLY24      -0.2714
     20  N         -8.3450    1.4830    3.8480 N.am   25  LEU25      -0.1963
     21  CA        -9.2960    1.8190    4.8710 C.3    25  LEU25       0.1728
     22  CB       -10.6020    1.0120    4.7670 C.3    25  LEU25       0.0311
     23  CG       -11.3450    1.1720    3.4300 C.3    25  LEU25       0.0022
     24  CD1      -12.6410    0.3440    3.4160 C.3    25  LEU25       0.0001
     25  CD2      -11.5750    2.6520    3.0910 C.3    25  LEU25       0.0001
     26  C         -8.7160    1.4710    6.2020 C.2    25  LEU25       0.2616
     27  O         -7.7880    0.6680    6.3080 O.2    25  LEU25      -0.2715
     28  N         -9.2650    2.0780    7.2730 N.am   26  ASP26      -0.1957
     29  CA        -8.7630    1.7360    8.5700 C.3    26  ASP26       0.1840
     30  CB        -9.4600    2.4450    9.7420 C.3    26  ASP26       0.1450
     31  CG       -10.8860    1.9180    9.7990 C.2    26  ASP26       0.3671
     32  OD1      -11.6590    2.1930    8.8440 O.co2  26  ASP26      -0.2456
     33  OD2      -11.2140    1.2070   10.7850 O.co2  26  ASP26      -0.2456
     34  C         -9.0410    0.2770    8.7580 C.2    26  ASP26       0.2622
     35  O         -9.9260   -0.2800    8.1140 O.2    26  ASP26      -0.2715
     36  N         -8.2620   -0.3650    9.6520 N.am   27  ALA27      -0.1963
     37  CA        -8.3770   -1.7500   10.0280 C.3    27  ALA27       0.1728
     38  CB        -9.7720   -2.1160   10.5640 C.3    27  ALA27       0.0334
     39  C         -8.0100   -2.6960    8.9140 C.2    27  ALA27       0.2616
     40  O         -8.3460   -3.8790    8.9750 O.2    27  ALA27      -0.2715
     41  N         -7.3230   -2.2050    7.8630 N.am   28  ALA28      -0.1963
     42  CA        -6.8040   -3.0210    6.7920 C.3    28  ALA28       0.1728
     43  CB        -6.2940   -2.1910    5.6030 C.3    28  ALA28       0.0334
     44  C         -5.6500   -3.8430    7.2910 C.2    28  ALA28       0.2617
     45  O         -5.4380   -4.9660    6.8250 O.2    28  ALA28      -0.2715
     46  N         -4.8740   -3.2900    8.2550 N.am   29  GLY29      -0.1940
     47  CA        -3.7000   -3.9500    8.7690 C.3    29  GLY29       0.2014
     48  C         -2.4490   -3.2050    8.3570 C.2    29  GLY29       0.2639
     49  O         -1.3590   -3.7740    8.3430 O.2    29  GLY29      -0.2714
     50  N         -2.5580   -1.9120    7.9960 N.am   30  LYS30      -0.1963
     51  CA        -1.3950   -1.1750    7.5420 C.3    30  LYS30       0.1728
     52  CB        -1.7650    0.2280    7.0320 C.3    30  LYS30       0.0311
     53  CG        -2.6830    0.1830    5.8050 C.3    30  LYS30       0.0038
     54  CD        -3.1560    1.5570    5.3220 C.3    30  LYS30       0.0206
     55  CE        -3.9840    2.3330    6.3490 C.3    30  LYS30       0.1093
     56  NZ        -5.2810    1.6600    6.5770 N.3    30  LYS30      -0.1314
     57  C         -0.3220   -1.0390    8.6030 C.2    30  LYS30       0.2617
     58  O          0.8530   -1.3100    8.3420 O.2    30  LYS30      -0.2715
     59  N         -0.7020   -0.6490    9.8400 N.am   31  THR31      -0.1937
     60  CA         0.2410   -0.4420   10.9190 C.3    31  THR31       0.2028
     61  CB        -0.4080    0.0570   12.1770 C.3    31  THR31       0.1808
     62  OG1       -1.0420    1.3060   11.9450 O.3    31  THR31      -0.2208
     63  CG2        0.6700    0.1980   13.2640 C.3    31  THR31       0.0379
     64  C          0.8890   -1.7490   11.2590 C.2    31  THR31       0.2643
     65  O          2.0890   -1.8220   11.5580 O.2    31  THR31      -0.2714
     66  N          0.0660   -2.8160   11.2370 N.am   32  THR32      -0.1936
     67  CA         0.5280   -4.1200   11.5930 C.3    32  THR32       0.2028
     68  CB        -0.5330   -5.1830   11.6750 C.3    32  THR32       0.1808
     69  OG1       -0.0310   -6.2870   12.4120 O.3    32  THR32      -0.2208
     70  CG2       -0.9080   -5.6600   10.2660 C.3    32  THR32       0.0379
     71  C          1.5640   -4.5460   10.5950 C.2    32  THR32       0.2642
     72  O          2.5310   -5.1960   10.9760 O.2    32  THR32      -0.2714
     73  N          1.3820   -4.2180    9.2940 N.am   33  ILE33      -0.1963
     74  CA         2.3040   -4.5650    8.2330 C.3    33  ILE33       0.1727
     75  CB         1.8070   -4.1860    6.8660 C.3    33  ILE33       0.0290
     76  CG1        0.5820   -5.0400    6.4970 C.3    33  ILE33       0.0022
     77  CG2        2.9710   -4.3130    5.8710 C.3    33  ILE33       0.0023
     78  CD1       -0.0900   -4.6180    5.1910 C.3    33  ILE33       0.0001
     79  C          3.6170   -3.8730    8.4680 C.2    33  ILE33       0.2616
     80  O          4.6690   -4.4660    8.2300 O.2    33  ILE33      -0.2715
     81  N          3.6080   -2.5940    8.9120 N.am   34  LEU34      -0.1963
     82  CA         4.8520   -1.8900    9.1300 C.3    34  LEU34       0.1728
     83  CB         4.6280   -0.4540    9.6350 C.3    34  LEU34       0.0311
     84  CG         3.8860    0.4560    8.6420 C.3    34  LEU34       0.0022
     85  CD1        3.7020    1.8690    9.2180 C.3    34  LEU34       0.0001
     86  CD2        4.5810    0.4700    7.2710 C.3    34  LEU34       0.0001
     87  C          5.6430   -2.5930   10.2050 C.2    34  LEU34       0.2616
     88  O          6.8630   -2.7980   10.0990 O.2    34  LEU34      -0.2715
     89  N          4.9300   -2.9930   11.2770 N.am   35  TYR35      -0.1974
     90  CA         5.5720   -3.6410   12.3840 C.3    35  TYR35       0.1639
     91  CB         4.6560   -3.8620   13.5990 C.3    35  TYR35       0.0560
     92  CG         4.6520   -2.5680   14.3390 C.ar   35  TYR35      -0.0198
     93  CD1        5.6480   -2.3210   15.2560 C.ar   35  TYR35      -0.0009
     94  CD2        3.6900   -1.6090   14.1260 C.ar   35  TYR35      -0.0009
     95  CE1        5.6900   -1.1420   15.9560 C.ar   35  TYR35       0.0417
     96  CE2        3.7280   -0.4230   14.8260 C.ar   35  TYR35       0.0417
     97  CZ         4.7260   -0.1880   15.7420 C.ar   35  TYR35       0.1957
     98  OH         4.7680    1.0260   16.4610 O.3    35  TYR35      -0.2866
     99  C          6.1860   -4.9670   11.9590 C.2    35  TYR35       0.2290
    100  O          7.3140   -5.2940   12.3410 O.2    35  TYR35      -0.2864
    101  N          1.9370    7.4430    9.8450 N.3    54  GLU54      -0.1245
    102  CA         2.9750    6.6140   10.3560 C.3    54  GLU54       0.1567
    103  CB         2.4520    5.2330   10.7800 C.3    54  GLU54       0.0388
    104  CG         1.5490    5.3130   12.0130 C.3    54  GLU54       0.1160
    105  CD         0.7690    4.0130   12.1110 C.2    54  GLU54       0.3649
    106  OE1        1.4150    2.9350   12.2030 O.co2  54  GLU54      -0.2457
    107  OE2       -0.4870    4.0850   12.0890 O.co2  54  GLU54      -0.2457
    108  C          3.9700    6.4450    9.2610 C.2    54  GLU54       0.2260
    109  O          3.6030    6.2320    8.1060 O.2    54  GLU54      -0.2867
    110  N          1.9920    5.6510    5.9700 N.3    65  VAL65      -0.1231
    111  CA         0.7250    5.0000    6.1590 C.3    65  VAL65       0.1692
    112  CB         0.8110    3.7980    7.0570 C.3    65  VAL65       0.0266
    113  CG1       -0.6130    3.2920    7.3340 C.3    65  VAL65       0.0020
    114  CG2        1.7310    2.7520    6.4070 C.3    65  VAL65       0.0020
    115  C         -0.2610    5.9270    6.8070 C.2    65  VAL65       0.2592
    116  O          0.0370    6.5990    7.7940 O.2    65  VAL65      -0.2718
    117  N         -1.4840    5.9760    6.2400 N.am   66  TRP66      -0.1962
    118  CA        -2.5760    6.7040    6.8180 C.3    66  TRP66       0.1771
    119  CB        -2.6420    8.1610    6.3580 C.3    66  TRP66       0.0590
    120  CG        -2.9770    8.3160    4.8980 C.ar   66  TRP66       0.0006
    121  CD2       -2.0380    8.2190    3.8160 C.ar   66  TRP66       0.0152
    122  CD1       -4.1860    8.5850    4.3330 C.ar   66  TRP66       0.0946
    123  NE1       -4.0570    8.6690    2.9730 N.ar   66  TRP66      -0.2442
    124  CE2       -2.7390    8.4530    2.6370 C.ar   66  TRP66       0.0810
    125  CE3       -0.7000    7.9620    3.8040 C.ar   66  TRP66       0.0012
    126  CZ2       -2.1150    8.4450    1.4230 C.ar   66  TRP66       0.0191
    127  CZ3       -0.0810    7.9430    2.5740 C.ar   66  TRP66       0.0001
    128  CH2       -0.7670    8.1860    1.4070 C.ar   66  TRP66       0.0015
    129  C         -3.8470    6.0420    6.3550 C.2    66  TRP66       0.2619
    130  O         -3.8500    5.3680    5.3280 O.2    66  TRP66      -0.2715
    131  N         -4.9660    6.2500    7.0920 N.am   67  ASP67      -0.1971
    132  CA        -6.2290    5.6020    6.8150 C.3    67  ASP67       0.1709
    133  CB        -7.1280    5.4950    8.0590 C.3    67  ASP67       0.1436
    134  CG        -6.4500    4.5960    9.0840 C.2    67  ASP67       0.3671
    135  OD1       -5.4770    3.8860    8.7130 O.co2  67  ASP67      -0.2456
    136  OD2       -6.9030    4.6080   10.2600 O.co2  67  ASP67      -0.2456
    137  C         -7.0030    6.3970    5.8020 C.2    67  ASP67       0.2293
    138  O         -6.9150    7.6200    5.7650 O.2    67  ASP67      -0.2864
    139  N         -3.8530   -1.6320    0.7780 N.3    91  VAL91      -0.1245
    140  CA        -4.0590   -2.7810    1.6170 C.3    91  VAL91       0.1561
    141  CB        -3.3600   -2.6700    2.9430 C.3    91  VAL91       0.0252
    142  CG1       -3.6650   -3.9260    3.7750 C.3    91  VAL91       0.0019
    143  CG2       -1.8620   -2.4410    2.6910 C.3    91  VAL91       0.0019
    144  C         -5.5180   -2.9400    1.9040 C.2    91  VAL91       0.2260
    145  O         -6.2070   -1.9840    2.2530 O.2    91  VAL91      -0.2867
    146  N         -8.5670   -5.5240    3.8430 N.3    93  ASP93      -0.1239
    147  CA        -8.8580   -6.5520    4.7990 C.3    93  ASP93       0.1674
    148  CB        -9.6970   -6.0170    5.9750 C.3    93  ASP93       0.1410
    149  CG       -10.0220   -7.1450    6.9420 C.2    93  ASP93       0.3668
    150  OD1       -9.5730   -8.2950    6.6970 O.co2  93  ASP93      -0.2456
    151  OD2      -10.7470   -6.8660    7.9340 O.co2  93  ASP93      -0.2456
    152  C         -9.6980   -7.5380    4.0450 C.2    93  ASP93       0.2266
    153  O        -10.8490   -7.2660    3.7150 O.2    93  ASP93      -0.2867
    154  N         -0.2010  -10.1860    8.3210 N.3   160  ALA160     -0.1245
    155  CA         0.6820   -9.7260    9.3550 C.3   160  ALA160      0.1562
    156  CB         0.1340   -8.4940   10.0950 C.3   160  ALA160      0.0290
    157  C          0.9340  -10.7880   10.3820 C.2   160  ALA160      0.2260
    158  O          2.0380  -10.8950   10.9130 O.2   160  ALA160     -0.2867
@<TRIPOS>BOND
     1    13    11    1
     2   139   140    1
     3    11    12    1
     4    11    10    1
     5   128   126   ar
     6   128   127   ar
     7   126   124   ar
     8    15    14    2
     9   140   144    1
    10   140   141    1
    11     1     2    1
    12     9    10    1
    13     9     7   am
    14   144   145    2
    15     2     7    1
    16     2     3    1
    17    14    10    1
    18    14    16   am
    19    17    16    1
    20    17    18    1
    21     7     8    2
    22   127   125   ar
    23   124   123   ar
    24   124   121   ar
    25   143   141    1
    26     4     3    1
    27     4     5    1
    28   141   142    1
    29   123   122   ar
    30    25    23    1
    31    24    23    1
    32    23    22    1
    33     5     6    1
    34    18    20   am
    35    18    19    2
    36   153   152    2
    37   125   121   ar
    38   121   120   ar
    39   146   147    1
    40    20    21    1
    41   152   147    1
    42   122   120   ar
    43    22    21    1
    44   147   148    1
    45    21    26    1
    46   120   119    1
    47    78    76    1
    48    54    53    1
    49    54    55    1
    50   130   129    2
    51    43    42    1
    52   138   137    2
    53   137   132    1
    54    53    52    1
    55    77    75    1
    56   110   111    1
    57   148   149    1
    58   111   115    1
    59   111   112    1
    60    26    27    2
    61    26    28   am
    62   117   115   am
    63   117   118    1
    64    55    56    1
    65   129   118    1
    66   129   131   am
    67   119   118    1
    68   114   112    1
    69    76    75    1
    70   150   149   ar
    71    42    44    1
    72    42    41    1
    73   115   116    2
    74   132   131    1
    75   132   133    1
    76    45    44    2
    77    75    74    1
    78   149   151   ar
    79    52    51    1
    80   112   113    1
    81    86    84    1
    82    28    29    1
    83    44    46   am
    84    51    50    1
    85    51    57    1
    86    41    39   am
    87    50    48   am
    88   133   134    1
    89   109   108    2
    90    35    34    2
    91    80    79    2
    92    74    79    1
    93    74    73    1
    94    46    47    1
    95   154   155    1
    96    58    57    2
    97    49    48    2
    98    48    47    1
    99    79    81   am
   100    29    34    1
   101    29    30    1
   102    57    59   am
   103    84    85    1
   104    84    83    1
   105   135   134   ar
   106    34    36   am
   107    32    31   ar
   108    81    82    1
   109    39    40    2
   110    39    37    1
   111   134   136   ar
   112    82    83    1
   113    82    87    1
   114   108   102    1
   115    73    71   am
   116   155   156    1
   117   155   157    1
   118    36    37    1
   119    30    31    1
   120    31    33   ar
   121    59    60    1
   122   101   102    1
   123    37    38    1
   124    88    87    2
   125    87    89   am
   126    70    68    1
   127   102   103    1
   128   157   158    2
   129    71    72    2
   130    71    67    1
   131   103   104    1
   132    60    64    1
   133    60    61    1
   134    66    64   am
   135    66    67    1
   136    64    65    2
   137    89    90    1
   138    67    68    1
   139    68    69    1
   140    62    61    1
   141    99   100    2
   142    99    90    1
   143   104   105    1
   144   107   105   ar
   145   105   106   ar
   146    61    63    1
   147    90    91    1
   148    91    92    1
   149    94    92   ar
   150    94    96   ar
   151    92    93   ar
   152    96    97   ar
   153    93    95   ar
   154    97    95   ar
   155    97    98    1
