@<TRIPOS>MOLECULE
E001008-binding-residue.pdb
 46 42 0 0 0
SMALL
GASTEIGER

@<TRIPOS>ATOM
      1  N         24.9300   -7.9780    0.8100 N.3   324  ASN324     -0.1225
      2  CA        24.1770   -8.0560   -0.4150 C.3   324  ASN324      0.1785
      3  CB        23.7350   -9.4860   -0.7620 C.3   324  ASN324      0.1169
      4  CG        24.9800  -10.2130   -1.2540 C.2   324  ASN324      0.2627
      5  OD1       25.9250   -9.5870   -1.7310 O.2   324  ASN324     -0.2716
      6  ND2       24.9830  -11.5690   -1.1420 N.am  324  ASN324     -0.0877
      7  C         22.9700   -7.1620   -0.3520 C.2   324  ASN324      0.2597
      8  O         22.6150   -6.5550   -1.3580 O.2   324  ASN324     -0.2718
      9  N         22.3000   -7.0730    0.8190 N.am  325  LEU325     -0.1980
     10  CA        21.1230   -6.2430    1.0120 C.3   325  LEU325      0.1596
     11  CB        20.5740   -6.3480    2.4480 C.3   325  LEU325      0.0297
     12  CG        19.9830   -7.7240    2.8120 C.3   325  LEU325      0.0022
     13  CD1       19.5320   -7.7710    4.2820 C.3   325  LEU325      0.0001
     14  CD2       18.8420   -8.0980    1.8530 C.3   325  LEU325      0.0001
     15  C         21.5170   -4.8160    0.8130 C.2   325  LEU325      0.2287
     16  O         20.7460   -4.0430    0.2490 O.2   325  LEU325     -0.2864
     17  N         21.7710   -4.1190   -2.8820 N.3   328  CYS328     -0.1235
     18  CA        20.4880   -4.0760   -3.5340 C.3   328  CYS328      0.1677
     19  CB        19.5400   -5.1890   -3.0550 C.3   328  CYS328      0.0956
     20  SG        20.1380   -6.8510   -3.4880 S.3   328  CYS328     -0.0801
     21  C         19.8020   -2.7700   -3.2610 C.2   328  CYS328      0.2270
     22  O         19.1730   -2.2060   -4.1540 O.2   328  CYS328     -0.2867
     23  N         33.8250   -3.8720    2.7460 N.3   354  LYS354     -0.1231
     24  CA        32.7260   -3.6910    1.8490 C.3   354  LYS354      0.1693
     25  CB        32.1620   -4.9960    1.2630 C.3   354  LYS354      0.0285
     26  CG        31.1880   -4.7560    0.1090 C.3   354  LYS354      0.0035
     27  CD        30.9070   -6.0130   -0.7160 C.3   354  LYS354      0.0206
     28  CE        30.0550   -7.0430    0.0230 C.3   354  LYS354      0.1093
     29  NZ        29.8050   -8.2150   -0.8440 N.3   354  LYS354     -0.1314
     30  C         31.6180   -2.9670    2.5320 C.2   354  LYS354      0.2592
     31  O         30.9990   -2.1010    1.9270 O.2   354  LYS354     -0.2718
     32  N         31.3290   -3.3090    3.8010 N.am  355  GLY355     -0.1957
     33  CA        30.2680   -2.6860    4.5300 C.3   355  GLY355      0.1869
     34  C         30.5370   -1.2300    4.7140 C.2   355  GLY355      0.2309
     35  O         29.6230   -0.4200    4.5770 O.2   355  GLY355     -0.2863
     36  N         30.0860    0.7000    1.3920 N.3   358  ARG358     -0.1245
     37  CA        28.7110    0.9030    1.0230 C.3   358  ARG358      0.1563
     38  CB        27.8730   -0.3570    0.7650 C.3   358  ARG358      0.0307
     39  CG        27.9860   -0.6740   -0.7310 C.3   358  ARG358      0.0489
     40  CD        26.9190   -1.5970   -1.3160 C.3   358  ARG358      0.2205
     41  NE        27.4000   -2.9980   -1.1810 N.pl3 358  ARG358     -0.0865
     42  CZ        28.2820   -3.5100   -2.0890 C.cat 358  ARG358      0.5346
     43  NH1       28.8090   -2.7130   -3.0650 N.pl3 358  ARG358      0.1354
     44  NH2       28.6410   -4.8250   -2.0100 N.pl3 358  ARG358      0.1354
     45  C         28.0130    1.9240    1.8880 C.2   358  ARG358      0.2260
     46  O         27.1280    2.6420    1.4110 O.2   358  ARG358     -0.2867
@<TRIPOS>BOND
     1    22    21    2
     2    18    21    1
     3    18    19    1
     4    18    17    1
     5    20    19    1
     6    43    42    1
     7    42    44    1
     8    42    41    2
     9     5     4    2
    10     8     7    2
    11    40    41    1
    12    40    39    1
    13     4     6   am
    14     4     3    1
    15    29    28    1
    16     3     2    1
    17    39    38    1
    18    27    28    1
    19    27    26    1
    20     2     7    1
    21     2     1    1
    22     7     9   am
    23    26    25    1
    24    16    15    2
    25    38    37    1
    26    15    10    1
    27     9    10    1
    28    10    11    1
    29    37    36    1
    30    37    45    1
    31    25    24    1
    32    46    45    2
    33    24    30    1
    34    24    23    1
    35    14    12    1
    36    31    30    2
    37    11    12    1
    38    30    32   am
    39    12    13    1
    40    32    33    1
    41    33    34    1
    42    35    34    2
