@<TRIPOS>MOLECULE
E004921-binding-residue.pdb
 48 46 0 0 0
SMALL
GASTEIGER

@<TRIPOS>ATOM
      1  N          1.8400  -10.9570   -2.3150 N.3    29  LEU29      -0.1231
      2  CA         0.4080  -11.1680   -2.3020 C.3    29  LEU29       0.1693
      3  CB         0.0500  -12.6630   -2.2790 C.3    29  LEU29       0.0284
      4  CG         0.5210  -13.4310   -3.5270 C.3    29  LEU29       0.0019
      5  CD1        0.1340  -14.9160   -3.4500 C.3    29  LEU29       0.0001
      6  CD2        0.0330  -12.7530   -4.8160 C.3    29  LEU29       0.0001
      7  C         -0.3060  -10.5540   -1.1370 C.2    29  LEU29       0.2592
      8  O         -1.4830  -10.2090   -1.2480 O.2    29  LEU29      -0.2718
      9  N          0.3550  -10.4640    0.0290 N.am   30  CYS30      -0.1970
     10  CA        -0.3550  -10.0880    1.2180 C.3    30  CYS30       0.1712
     11  CB        -0.2530  -11.1720    2.3000 C.3    30  CYS30       0.0983
     12  SG        -0.9290  -12.7400    1.6990 S.3    30  CYS30      -0.0798
     13  C          0.2090   -8.8470    1.8150 C.2    30  CYS30       0.2296
     14  O          1.2640   -8.3550    1.4220 O.2    30  CYS30      -0.2864
     15  N         -7.6380    0.6290   -5.5500 N.3    47  TYR47      -0.1241
     16  CA        -7.2090   -0.3400   -4.5770 C.3    47  TYR47       0.1605
     17  CB        -8.0220   -0.3180   -3.2750 C.3    47  TYR47       0.0534
     18  CG        -9.3220   -0.9940   -3.5490 C.ar   47  TYR47      -0.0201
     19  CD1      -10.3480   -0.3410   -4.1930 C.ar   47  TYR47      -0.0009
     20  CD2       -9.5100   -2.2980   -3.1470 C.ar   47  TYR47      -0.0009
     21  CE1      -11.5400   -0.9850   -4.4380 C.ar   47  TYR47       0.0417
     22  CE2      -10.6970   -2.9460   -3.3880 C.ar   47  TYR47       0.0417
     23  CZ       -11.7150   -2.2890   -4.0370 C.ar   47  TYR47       0.1957
     24  OH       -12.9370   -2.9520   -4.2860 O.3    47  TYR47      -0.2866
     25  C         -7.4030   -1.7150   -5.1520 C.2    47  TYR47       0.2264
     26  O         -8.1260   -1.8940   -6.1320 O.2    47  TYR47      -0.2867
     27  N         -7.4710   -6.1700   -3.8490 N.3    49  GLU49      -0.1231
     28  CA        -7.6170   -7.0800   -2.7450 C.3    49  GLU49       0.1699
     29  CB        -8.7900   -8.0640   -2.9260 C.3    49  GLU49       0.0402
     30  CG       -10.1590   -7.3850   -3.0300 C.3    49  GLU49       0.1161
     31  CD       -10.5430   -6.8520   -1.6580 C.2    49  GLU49       0.3649
     32  OE1       -9.8250   -7.1730   -0.6730 O.co2  49  GLU49      -0.2457
     33  OE2      -11.5620   -6.1170   -1.5770 O.co2  49  GLU49      -0.2457
     34  C         -6.3730   -7.9070   -2.6150 C.2    49  GLU49       0.2593
     35  O         -5.6110   -8.0670   -3.5650 O.2    49  GLU49      -0.2718
     36  N         -6.1080   -8.4140   -1.3920 N.am   50  THR50      -0.1939
     37  CA        -4.9900   -9.2860   -1.1650 C.3    50  THR50       0.2028
     38  CB        -4.3570   -9.1040    0.1860 C.3    50  THR50       0.1808
     39  OG1       -5.3040   -9.3670    1.2110 O.3    50  THR50      -0.2208
     40  CG2       -3.8350   -7.6610    0.3020 C.3    50  THR50       0.0379
     41  C         -5.5060  -10.6900   -1.2670 C.2    50  THR50       0.2642
     42  O         -6.7130  -10.9090   -1.3440 O.2    50  THR50      -0.2714
     43  N         -4.6050  -11.6940   -1.2650 N.am   51  SER51      -0.1949
     44  CA        -5.0460  -13.0530   -1.4200 C.3    51  SER51       0.1924
     45  CB        -3.8920  -14.0490   -1.6190 C.3    51  SER51       0.2116
     46  OG        -4.4050  -15.3650   -1.7590 O.3    51  SER51      -0.2180
     47  C         -5.8070  -13.4760   -0.1980 C.2    51  SER51       0.2314
     48  O         -5.6020  -12.9700    0.9030 O.2    51  SER51      -0.2863
@<TRIPOS>BOND
     1    26    25    2
     2    15    16    1
     3    25    16    1
     4     6     4    1
     5    16    17    1
     6    21    19   ar
     7    21    23   ar
     8    24    23    1
     9    19    18   ar
    10    23    22   ar
    11    27    28    1
    12    35    34    2
    13    18    17    1
    14    18    20   ar
    15     4     5    1
    16     4     3    1
    17    22    20   ar
    18    30    29    1
    19    30    31    1
    20    29    28    1
    21    28    34    1
    22    34    36   am
    23     1     2    1
    24     2     3    1
    25     2     7    1
    26    46    45    1
    27    31    33   ar
    28    31    32   ar
    29    45    44    1
    30    44    43    1
    31    44    47    1
    32    36    37    1
    33    42    41    2
    34    41    43   am
    35    41    37    1
    36     8     7    2
    37    37    38    1
    38     7     9   am
    39    47    48    2
    40     9    10    1
    41    38    40    1
    42    38    39    1
    43    10    13    1
    44    10    11    1
    45    14    13    2
    46    12    11    1
